(PID.TID 0000.0001) ** Warning ** THSICE_READPARMS: ignores "data.ice" file since
(PID.TID 0000.0001) ** Warning ** THSICE_READPARMS: useThSIce= F (set from "data.pkg")
