(PID.TID 0000.0001) ** Warning ** SEAICE_READPARMS: ignores "data.seaice" file since
(PID.TID 0000.0001) ** Warning ** SEAICE_READPARMS: useSEAICE= F (set from "data.pkg")
